73
	Energy:     128.2789096
C         -0.11243       -0.45401       -0.14983
C         -1.58882       -0.60476       -0.17080
C          0.52336        0.81241        0.01722
C         -2.45287        0.52214       -0.00839
C         -1.79127        1.74773        0.15569
C         -0.38133        1.88299        0.16240
C         -3.89047        2.95453        0.34618
C         -4.55244        1.70775        0.17676
C         -3.85798        0.49689       -0.00367
C         -4.47146       -0.74598       -0.18311
C         -3.69037       -1.89279       -0.35302
H         -5.64226        1.69017        0.18108
C          2.20871       -1.38366       -0.24059
C          2.77457       -0.09083       -0.05801
C          1.91386        1.04882        0.05374
C          2.31630        2.40537        0.20475
C          1.40660        3.47618        0.33802
H          1.76292        4.49536        0.45147
C          4.18575        0.00678        0.02523
C          5.03822       -1.10454       -0.06043
C          4.46017       -2.35459       -0.26183
H          5.08525       -3.24080       -0.33734
C         -2.47494        2.93831        0.32716
C         -2.28471       -1.82228       -0.34403
H         -1.74277       -2.75431       -0.48070
C          0.79439       -1.52137       -0.28614
H          0.38495       -2.51853       -0.41787
C          0.03820        3.18580        0.32620
C          3.06768       -2.50928       -0.36127
S         -1.32508        4.22828        0.49079
C         -4.70991        4.21278        0.52516
H         -5.71758        3.95332        0.87580
H         -4.26064        4.79617        1.33946
C         -4.80087        5.07741       -0.74717
H         -3.79247        5.28286       -1.12602
C         -5.58724        4.38439       -1.86239
H         -5.08980        3.46593       -2.18905
H         -6.59986        4.12685       -1.53429
H         -5.67124        5.03629       -2.73857
C         -5.45240        6.42128       -0.41325
H         -4.87713        6.95269        0.35235
H         -5.49769        7.06256       -1.29981
H         -6.47297        6.28650       -0.03911
C          6.52934       -0.88468        0.10644
H          6.84242       -0.11690       -0.61262
H          6.68178       -0.47774        1.11263
C          7.41925       -2.12143       -0.08253
H          7.21572       -2.54313       -1.07572
H          7.14683       -2.89064        0.65196
C          8.93364       -1.83759        0.02713
H          9.18385       -1.01516       -0.65511
C          9.32565       -1.42319        1.44869
H          8.79564       -0.51976        1.76378
H          9.09918       -2.21737        2.16825
H         10.39365       -1.19702        1.51904
C          9.70106       -3.09915       -0.42766
H          9.32046       -3.40754       -1.41021
H          9.49202       -3.92739        0.26181
C         11.21385       -2.90205       -0.54046
H         11.65032       -2.70848        0.44466
H         11.43140       -2.03484       -1.17411
C         11.88357       -4.13370       -1.13278
H         12.96466       -3.98044       -1.20517
H         11.70537       -5.01497       -0.50812
H         11.50245       -4.34273       -2.13764
C          2.53546       -3.90499       -0.58012
H          1.93205       -4.22075        0.27681
H          1.93470       -3.94469       -1.49457
H          3.34464       -4.63411       -0.69720
H          4.65283        0.97586        0.18426
H          3.37246        2.66455        0.21868
H         -5.55504       -0.83184       -0.19449
H         -4.17577       -2.85609       -0.49481
